<?xml version="1.0"?>
<routes>
	<route id="0" town="Town02">
		<waypoint x="-20.6973562240600586" y="179.0623321533203" z="0.0" pitch="0.0" roll="0.0" yaw="-90.06791687011719" />
		<waypoint x="50.665682315826416" y="205.7830352783203" z="0.0" pitch="0.0" roll="0.0" yaw="-90.06791687011719" />
	</route>
</routes>
