<?xml version="1.0"?>
<routes>
	<route id="0" town="Town02"> 
		<waypoint x="-3.6973562240600586" y="179.0623321533203" z="0.0" pitch="0.0" roll="0.0" yaw="-90.06791687011719" />
		<waypoint x="-3.74371337890625" y="139.95481872558594" z="0.0" pitch="0.0" roll="0.0" yaw="-90.06791687011719" />
		<waypoint x="11.363693237304688" y="109.63178253173828" z="0.0" pitch="360.0" roll="0.0" yaw="0.0161895751953125" />
		<waypoint x="94.48065185546875" y="109.6552963256836" z="0.0" pitch="360.0" roll="0.0" yaw="0.0162200927734375" />
		<waypoint x="141.0159149169922" y="109.66847229003906" z="0.0" pitch="360.0" roll="0.0" yaw="0.016265869140625" />
		<waypoint x="157.96469116210938" y="109.67328643798828" z="0.0" pitch="360.0" roll="0.0" yaw="0.016265869140625" />
		<waypoint x="178.3649444580078" y="109.6790771484375" z="0.0" pitch="360.0" roll="0.0" yaw="0.016265869140625" />
		<waypoint x="189.5306854248047" y="122.14183807373047" z="0.0" pitch="360.0" roll="0.0" yaw="89.9903564453125" />
		<waypoint x="189.5395965576172" y="175.0299835205078" z="0.0" pitch="360.0" roll="0.0" yaw="89.99028778076172" />
		<waypoint x="189.1422882080078" y="186.0888214111328" z="0.0" pitch="360.0" roll="0.0" yaw="117.22735595703125" />
		<waypoint x="150.44764709472656" y="188.11343383789062" z="0.0" pitch="360.0" roll="0.0" yaw="179.95350646972656" />
		<waypoint x="122.00720977783203" y="188.1365203857422" z="0.0" pitch="360.0" roll="0.0" yaw="179.95350646972656" />
		<waypoint x="60.52153015136719" y="188.1864013671875" z="0.0" pitch="360.0" roll="0.0" yaw="179.95350646972656" />
		<waypoint x="41.70449447631836" y="202.53211975097656" z="0.0" pitch="360.0" roll="0.0" yaw="90.02497863769531" />
		<waypoint x="41.695037841796875" y="224.2197723388672" z="0.0" pitch="360.0" roll="0.0" yaw="90.02497863769531" />
		<waypoint x="58.090850830078125" y="240.9201202392578" z="0.0" pitch="360.0" roll="0.0" yaw="0.1973114013671875" />
		<waypoint x="85.47953033447266" y="241.01443481445312" z="0.0" pitch="360.0" roll="0.0" yaw="0.1973114013671875" />
		<waypoint x="120.41314697265625" y="241.13473510742188" z="0.0" pitch="360.0" roll="0.0" yaw="0.1973114013671875" />
		<waypoint x="148.17320251464844" y="241.23033142089844" z="0.0" pitch="360.0" roll="0.0" yaw="0.1973114013671875" />
		<waypoint x="177.82032775878906" y="241.33242797851562" z="0.0" pitch="360.0" roll="0.0" yaw="0.1973114013671875" />
		<waypoint x="189.55259704589844" y="251.75140380859375" z="0.0" pitch="360.0" roll="0.0" yaw="89.99021911621094" />
		<waypoint x="189.55908203125" y="289.68310546875" z="0.0" pitch="360.0" roll="0.0" yaw="89.99021911621094" />
		<waypoint x="175.65786743164062" y="303.0173645019531" z="0.0" pitch="360.0" roll="0.0" yaw="180.0260009765625" />
		<waypoint x="155.39031982421875" y="303.0081787109375" z="0.0" pitch="360.0" roll="0.0" yaw="180.0260009765625" />
		<waypoint x="111.81758880615234" y="302.9884338378906" z="0.0" pitch="360.0" roll="0.0" yaw="180.02587890625" />
		<waypoint x="58.329769134521484" y="302.9642639160156" z="0.0" pitch="360.0" roll="0.0" yaw="180.02587890625" />
		<waypoint x="33.31934356689453" y="302.9530029296875" z="0.0" pitch="360.0" roll="0.0" yaw="180.0257568359375" />
		<waypoint x="4.922668933868408" y="302.94024658203125" z="0.0" pitch="360.0" roll="0.0" yaw="180.0257568359375" />
		<waypoint x="-3.566227436065674" y="289.6850891113281" z="0.0" pitch="0.0" roll="0.0" yaw="-90.06791687011719" />
		<waypoint x="-3.6064677238464355" y="255.73770141601562" z="0.0" pitch="0.0" roll="0.0" yaw="-90.06791687011719" />
		<waypoint x="-3.665682315826416" y="205.7830352783203" z="0.0" pitch="0.0" roll="0.0" yaw="-90.06791687011719" />
	</route>
</routes>
